$# LS-DYNA Keyword file created by LS-PrePost(R) V4.7.7 - 17Feb2020
$# Created on Oct-04-2023 (19:57:52)
*KEYWORD
*TITLE
$#                                                                         title
ricochet
$
$$$$$$$$$$$$$$$$$$$$$$$$$$$$$$$$$$$$$$$$$$$$$$$$$$$$$$$$$$$$$$$$$$$$$$$$$$$$$$$$
$                              CONTROL OPTIONS                                 $
$$$$$$$$$$$$$$$$$$$$$$$$$$$$$$$$$$$$$$$$$$$$$$$$$$$$$$$$$$$$$$$$$$$$$$$$$$$$$$$$
$
*CONTROL_ENERGY
$#    hgen      rwen    slnten     rylen     irgen     
         2         2         2         2         2
*CONTROL_SHELL
$#  wrpang     esort     irnxx    istupd    theory       bwc     miter      proj
      20.0         1        -1         1         2         2         1         0
$# rotascl    intgrd    lamsht    cstyp6    thshel      
       1.0         0         0         1         0
$# psstupd   sidt4tu     cntco    itsflg    irquad    w-mode   stretch      icrq
         0         0         0         0         2       0.0       0.0         0
*CONTROL_TERMINATION
$#  endtim    endcyc     dtmin    endeng    endmas     nosol     
     100.0         0       0.0       0.0       0.0         0
*CONTROL_TIMESTEP
$#  dtinit    tssfac      isdo    tslimt     dt2ms      lctm     erode     ms1st
       0.0       0.9         0       0.0       0.0         0         0         0
$#  dt2msf   dt2mslc     imscl    unused    unused     rmscl    unused      ihdo
       0.0         0         0                           0.0                   0
*CONTROL_HOURGLASS
$#     ihq        qh
        10       0.1
$
$$$$$$$$$$$$$$$$$$$$$$$$$$$$$$$$$$$$$$$$$$$$$$$$$$$$$$$$$$$$$$$$$$$$$$$$$$$$$$$$
$                                 TIME HISTORY                                 $
$$$$$$$$$$$$$$$$$$$$$$$$$$$$$$$$$$$$$$$$$$$$$$$$$$$$$$$$$$$$$$$$$$$$$$$$$$$$$$$$
$
*DATABASE_GLSTAT
$#      dt    binary      lcur     ioopt     
       1.1         0         0         1
*DATABASE_MATSUM
$#      dt    binary      lcur     ioopt     
       1.1         0         0         1
*DATABASE_RBDOUT
$#      dt    binary      lcur     ioopt     
       1.1         0         0         1
*DATABASE_RCFORC
$#      dt    binary      lcur     ioopt     
       1.1         0         0         1
*DATABASE_BINARY_D3PLOT
$#      dt      lcdt      beam     npltc    psetid      
       1.0         0         0         0         0
*DATABASE_BINARY_D3THDT
$#      dt      lcdt      beam     npltc    psetid      
       1.1         0         0         0         0
$
$$$$$$$$$$$$$$$$$$$$$$$$$$$$$$$$$$$$$$$$$$$$$$$$$$$$$$$$$$$$$$$$$$$$$$$$$$$$$$$$
$                              DATABASE OPTIONS                                $
$$$$$$$$$$$$$$$$$$$$$$$$$$$$$$$$$$$$$$$$$$$$$$$$$$$$$$$$$$$$$$$$$$$$$$$$$$$$$$$$
$
*DATABASE_EXTENT_BINARY
$#   neiph     neips    maxint    strflg    sigflg    epsflg    rltflg    engflg
         0         0         3         1         1         1         1         1
$#  cmpflg    ieverp    beamip     dcomp      shge     stssz    n3thdt   ialemat
         0         0         4         1         1         1         2         1
*DATABASE_HISTORY_NODE
$#     id1       id2       id3       id4       id5       id6       id7       id8
         1         0         0         0         0         0         0         0
*BOUNDARY_SPC_SET
$#    nsid       cid      dofx      dofy      dofz     dofrx     dofry     dofrz
         1         0         1         1         1         0         0         0
*SET_NODE_LIST
$#     sid       da1       da2       da3       da4    solver      
         1       0.0       0.0       0.0       0.0MECH
$#    nid1      nid2      nid3      nid4      nid5      nid6      nid7      nid8
         1        52       452       503       905       906      1005      1006
      8365      8375      8775      8785      9185      9186      9205      9206
*BOUNDARY_SPC_SET
$#    nsid       cid      dofx      dofy      dofz     dofrx     dofry     dofrz
         2         0         1         1         1         0         0         0
*SET_NODE_LIST
$#     sid       da1       da2       da3       da4    solver      
         2       0.0       0.0       0.0       0.0MECH
$#    nid1      nid2      nid3      nid4      nid5      nid6      nid7      nid8
         2         3         4         5         6         7         8         9
        10        11        12        53        54        55        56        57
        58        59        60        61       453       454       455       456
       457       458       459       460       461       462       463       504
       505       506       507       508       509       510       511       512
       903       904       907       908       909       910       911       912
       913       914       915       916       917       918       919       920
       921       922       923       924       925       926      1007      1008
      1009      1010      1011      1012      1013      1014      1015      1016
      1017      1018      1019      1020      1021      1022      1023      1024
      1805      1806      1807      1808      1809      1810      1811      1812
      1813      1814      1815      1816      1817      1818      1819      1820
      1821      1822      1823      1824      1825      1826      1827      1828
      1829      1830      1831      1832      1833      1834      1835      1836
      1837      1838      1839      1840      1841      1842      1843      1844
      1845      1885      1886      1887      1888      1889      1890      1891
      1892      1893      1894      1895      1896      1897      1898      1899
      1900      1901      1902      1903      1904      1905      1906      1907
      1908      1909      1910      1911      1912      1913      1914      1915
      1916      1917      1918      1919      1920      1921      1922      1923
$ ... 39 like lines cut
*BOUNDARY_SPC_SET
$#    nsid       cid      dofx      dofy      dofz     dofrx     dofry     dofrz
         3         0         1         1         1         0         0         0
*SET_NODE_LIST
$#     sid       da1       da2       da3       da4    solver      
         3       0.0       0.0       0.0       0.0MECH
$#    nid1      nid2      nid3      nid4      nid5      nid6      nid7      nid8
        62        63        64        65        66        67        68        69
        70        71        72        73        74        75        76        77
        78        79        80        81        82        83        84        85
        86        87        88        89        90        91        92        93
        94        95        96        97        98        99       100       513
       514       515       516       517       518       519       520       521
       522       523       524       525       526       527       528       529
       530       531       532       533       534       535       536       537
       538       539       540       541       542       543       544       545
       546       547       548       549       550       551      1025      1026
      1027      1028      1029      1030      1031      1032      1033      1034
      1035      1036      1037      1038      1039      1040      1041      1042
      1043      1044      1045      1046      1047      1048      1049      1050
      1051      1052      1053      1054      1055      1056      1057      1058
      1059      1060      1061      1062      1063      1064      1065      1066
      1067      1068      1069      1070      1071      1072      1073      1074
      1075      1076      1077      1078      1079      1080      1081      1082
      1083      1084      1085      1086      1087      1088      1089      1090
      1091      1092      1093      1094      1095      1096      1097      1098
      1099      1100      1101      1102      8376      8377      8378      8379
$ ... 19 like lines cut
*PART
$#                                                                         title
Plate
$#     pid     secid       mid     eosid      hgid      grav    adpopt      tmid
         1         1         1         0         0         0         0         0
*SECTION_SOLID
$#   secid    elform       aet   
         1         1         0
*MAT_PLASTIC_KINEMATIC
$#     mid        ro         e        pr      sigy      etan      beta    
         1     7.896       2.1     0.284      0.01       0.0       1.0
$#     src       srp        fs        vp  
       0.0       0.0       0.8       0.0
*PART
$#                                                                         title
Projectile
$#     pid     secid       mid     eosid      hgid      grav    adpopt      tmid
         2         1         2         0         0         0         0         0
*MAT_PLASTIC_KINEMATIC
$#     mid        ro         e        pr      sigy      etan      beta    
         2     18.62      1.17      0.22    0.0179       0.0       1.0
$#     src       srp        fs        vp  
       0.0       0.0       0.8       0.0
*INITIAL_VELOCITY_GENERATION
$#nsid/pid      styp     omega        vx        vy        vz     ivatn      icid
         4         3       0.0     0.125-7.630E-18  -0.03339         0         0
$#      xc        yc        zc        nx        ny        nz     phase    irigid
       0.0       0.0       0.0       0.0       0.0       0.0         0         0
$
$
$$$$$$$$$$$$$$$$$$$$$$$$$$$$$$$$$$$$$$$$$$$$$$$$$$$$$$$$$$$$$$$$$$$$$$$$$$$$$$$$
$                              CONTACT DEFINITIONS                             $
$$$$$$$$$$$$$$$$$$$$$$$$$$$$$$$$$$$$$$$$$$$$$$$$$$$$$$$$$$$$$$$$$$$$$$$$$$$$$$$$
$
*CONTACT_ERODING_SURFACE_TO_SURFACE
$#     cid                                                                 title
$#    ssid      msid     sstyp     mstyp    sboxid    mboxid       spr       mpr    
         2         1         3         3         0         0         0         0
$#      fs        fd        dc        vc       vdc    penchk        bt        dt
       0.0       0.0       0.0       0.0       0.0         0       0.01.00000E20
$#     sfs       sfm       sst       mst      sfst      sfmt       fsf       vsf
       1.0       1.0       0.0       0.0       1.0       1.0       1.0       1.0
$#    isym    erosop      iadj
         0         1         0
$
$$$$$$$$$$$$$$$$$$$$$$$$$$$$$$$$$$$$$$$$$$$$$$$$$$$$$$$$$$$$$$$$$$$$$$$$$$$$$$$$
$                         INITIAL VELOCITY DEFINITIONS                         $
$$$$$$$$$$$$$$$$$$$$$$$$$$$$$$$$$$$$$$$$$$$$$$$$$$$$$$$$$$$$$$$$$$$$$$$$$$$$$$$$
$
*SET_NODE_LIST
$#     sid       da1       da2       da3       da4    solver      
         4       0.0       0.0       0.0       0.0MECH
$#    nid1      nid2      nid3      nid4      nid5      nid6      nid7      nid8
     10005     10006     10007     10008     10009     10010     10011     10012
     10013     10014     10015     10016     10017     10018     10019     10020
     10021     10022     10023     10024     10025     10026     10027     10028
     10029     10030     10031     10032     10033     10034     10035     10036
     10037     10038     10039     10040     10041     10042     10043     10044
     10045     10046     10047     10048     10049     10050     10051     10052
     10053     10054     10055     10056     10057     10058     10059     10060
     10061     10062     10063     10064     10065     10066     10067     10068
     10069     10070     10071     10072     10073     10074     10075     10076
     10077     10078     10079     10080     10081     10082     10083     10084
     10085     10086     10087     10088     10089     10090     10091     10092
     10093     10094     10095     10096     10097     10098     10099     10100
     10101     10102     10103     10104     10105     10106     10107     10108
     10109     10110     10111     10112     10113     10114     10115     10116
     10117     10118     10119     10120     10121     10122     10123     10124
     10125     10126     10127     10128     10129     10130     10131     10132
     10133     10134     10135     10136     10137     10138     10139     10140
     10141     10142     10143     10144     10145     10146     10147     10148
     10149     10150     10151     10152     10153     10154     10155     10156
     10157     10158     10159     10160     10161     10162     10163     10164
$ ... 504 like lines cut
$
$
$$$$$$$$$$$$$$$$$$$$$$$$$$$$$$$$$$$$$$$$$$$$$$$$$$$$$$$$$$$$$$$$$$$$$$$$$$$$$$$$
$                             ELEMENT DEFINITIONS                              $
$$$$$$$$$$$$$$$$$$$$$$$$$$$$$$$$$$$$$$$$$$$$$$$$$$$$$$$$$$$$$$$$$$$$$$$$$$$$$$$$
$
*ELEMENT_SOLID
$#   eid     pid      n1      n2      n3      n4      n5      n6      n7      n8
       1       1       1       3     101      62     905     907    1103    1101
       2       1       3       4     140     101     907     909    1181    1103
       3       1       4       5     179     140     909     911    1259    1181
       4       1       5       6     218     179     911     913    1337    1259
       5       1       6       7     257     218     913     915    1415    1337
       6       1       7       8     296     257     915     917    1493    1415
       7       1       8       9     335     296     917     919    1571    1493
       8       1       9      10     374     335     919     921    1649    1571
       9       1      10      11     413     374     921     923    1727    1649
      10       1      11       2      13     413     923     903     927    1727
      11       1      62     101     102      63    1101    1103    1105    1099
      12       1     101     140     141     102    1103    1181    1183    1105
      13       1     140     179     180     141    1181    1259    1261    1183
      14       1     179     218     219     180    1259    1337    1339    1261
      15       1     218     257     258     219    1337    1415    1417    1339
      16       1     257     296     297     258    1415    1493    1495    1417
      17       1     296     335     336     297    1493    1571    1573    1495
      18       1     335     374     375     336    1571    1649    1651    1573
      19       1     374     413     414     375    1649    1727    1729    1651
      20       1     413      13      14     414    1727     927     929    1729
$ ... 10852 like lines cut
$
$
$
$$$$$$$$$$$$$$$$$$$$$$$$$$$$$$$$$$$$$$$$$$$$$$$$$$$$$$$$$$$$$$$$$$$$$$$$$$$$$$$$
$                               NODE DEFINITIONS                               $
$$$$$$$$$$$$$$$$$$$$$$$$$$$$$$$$$$$$$$$$$$$$$$$$$$$$$$$$$$$$$$$$$$$$$$$$$$$$$$$$
$
*NODE
$#   nid               x               y               z      tc      rc  
       1             0.0             0.0           -0.64       0       0
       2             6.0             0.0           -0.64       0       0
       3        1.090172             0.0           -0.64       0       0
       4        2.024715             0.0           -0.64       0       0
       5        2.825847             0.0           -0.64       0       0
       6        3.512612             0.0           -0.64       0       0
       7        4.101337             0.0           -0.64       0       0
       8        4.606019             0.0           -0.64       0       0
       9        5.038654             0.0           -0.64       0       0
      10        5.409528             0.0           -0.64       0       0
      11        5.727457             0.0           -0.64       0       0
      12             6.0            10.0           -0.64       0       0
      13             6.0            0.25           -0.64       0       0
      14             6.0             0.5           -0.64       0       0
      15             6.0            0.75           -0.64       0       0
      16             6.0             1.0           -0.64       0       0
      17             6.0            1.25           -0.64       0       0
      18             6.0             1.5           -0.64       0       0
      19             6.0            1.75           -0.64       0       0
      20             6.0             2.0           -0.64       0       0
$ ... 14173 like lines cut
*END
